Version 4
SHEET 1 4668 1356
WIRE 3376 -128 3376 -208
WIRE 3376 -128 3344 -128
WIRE 864 -112 -32 -112
WIRE 624 -64 576 -64
WIRE 768 -64 704 -64
WIRE 3296 -48 3296 -112
WIRE 3296 -48 3232 -48
WIRE 304 -16 192 -16
WIRE 432 -16 368 -16
WIRE 2640 16 2640 -80
WIRE 2768 16 2768 -80
WIRE 3344 32 3344 -32
WIRE 3392 32 3344 32
WIRE 2032 48 1936 48
WIRE 2208 64 2144 64
WIRE 1808 80 1808 0
WIRE 2032 80 1936 80
WIRE 2576 96 2144 96
WIRE 2960 96 2960 -32
WIRE 2960 96 2832 96
WIRE 3232 96 3232 -48
WIRE 3232 96 2960 96
WIRE 432 112 432 -16
WIRE 1744 112 1680 112
WIRE 1936 112 1856 112
WIRE 2032 112 1936 112
WIRE 2432 112 2288 112
WIRE 3344 112 3344 32
WIRE 3504 112 3344 112
WIRE 3664 112 3584 112
WIRE 3760 112 3664 112
WIRE 3808 112 3760 112
WIRE 1936 128 1936 112
WIRE -32 160 -32 -112
WIRE 80 160 -32 160
WIRE 192 160 192 -16
WIRE 192 160 160 160
WIRE 336 160 192 160
WIRE 656 160 656 128
WIRE 2432 160 2432 112
WIRE 432 176 432 112
WIRE 432 176 400 176
WIRE 496 176 432 176
WIRE 576 176 576 -64
WIRE 608 176 608 144
WIRE 624 176 608 176
WIRE 3664 176 3664 112
WIRE 3760 176 3760 112
WIRE 336 192 288 192
WIRE 768 192 768 -64
WIRE 768 192 688 192
WIRE 784 192 768 192
WIRE 864 192 864 -112
WIRE 864 192 784 192
WIRE 960 192 864 192
WIRE 2368 192 2336 192
WIRE 2576 192 2480 192
WIRE 2960 192 2832 192
WIRE 3264 192 2960 192
WIRE 576 208 576 176
WIRE 624 208 576 208
WIRE 1808 208 1808 144
WIRE 1936 240 1936 192
WIRE 784 256 784 192
WIRE 3344 272 3344 112
WIRE 2288 288 2288 112
WIRE 2288 288 2208 288
WIRE 704 320 704 256
WIRE 736 320 704 320
WIRE 2432 336 2432 224
WIRE 2960 352 2960 192
WIRE 3264 352 3264 192
WIRE 3296 352 3264 352
WIRE 2000 368 2000 336
WIRE 3376 368 3344 368
WIRE 432 384 432 176
WIRE 448 384 432 384
WIRE 544 384 512 384
WIRE 624 384 544 384
WIRE 3664 384 3664 240
WIRE 3760 384 3760 256
WIRE 0 400 0 368
WIRE 832 400 688 400
WIRE 992 400 832 400
WIRE 2640 400 2640 272
WIRE 2768 400 2768 272
WIRE 0 416 0 400
WIRE 624 416 576 416
WIRE 544 448 544 384
WIRE 576 448 576 416
WIRE 752 448 720 448
WIRE 832 448 832 400
WIRE 3376 448 3376 368
WIRE 720 464 720 448
WIRE 1824 480 1824 400
WIRE -64 512 -64 464
WIRE 0 512 0 496
WIRE 0 512 -64 512
WIRE 1760 512 1664 512
WIRE 2000 512 2000 432
WIRE 2000 512 1872 512
WIRE 2032 512 2000 512
WIRE 544 528 416 528
WIRE 2336 528 2336 192
WIRE 2336 528 2144 528
WIRE 544 544 544 528
WIRE 2000 544 1952 544
WIRE 2032 544 2000 544
WIRE 2000 560 2000 544
WIRE 2000 560 1936 560
WIRE 2176 560 2144 560
WIRE 2032 576 1952 576
WIRE 1712 592 1712 560
WIRE 1824 592 1824 544
WIRE 1824 592 1712 592
WIRE 1936 608 1936 560
WIRE 1936 608 1808 608
WIRE 416 640 416 528
WIRE 1808 640 1808 608
WIRE 1952 640 1952 576
WIRE 2160 640 1952 640
WIRE 1664 672 1664 512
WIRE 1760 672 1664 672
WIRE 1936 672 1872 672
WIRE 2256 672 2256 640
WIRE 2176 704 2176 560
WIRE 2208 704 2176 704
WIRE 2336 704 2320 704
WIRE 1808 784 1808 704
WIRE 2160 784 2160 640
WIRE 2256 784 2256 736
WIRE 2336 832 2336 704
FLAG 0 400 VCM
IOPIN 0 400 In
FLAG 544 384 VRAMP_B
FLAG 0 592 0
FLAG 288 192 VCM
IOPIN 288 192 In
FLAG 608 144 VCM
IOPIN 608 144 In
FLAG 992 400 VPWM
IOPIN 992 400 Out
FLAG 432 112 VRAMP
IOPIN 432 112 Out
FLAG 576 448 VCTRL
IOPIN 576 448 In
FLAG 0 288 0
FLAG 960 192 VSQR
IOPIN 960 192 Out
FLAG 368 144 0
FLAG 656 128 0
FLAG 656 368 0
FLAG 368 208 VDD
IOPIN 368 208 In
FLAG 656 224 VDD
IOPIN 656 224 In
FLAG 656 432 VDD
IOPIN 656 432 In
FLAG 736 320 VDD
IOPIN 736 320 In
FLAG 720 464 VDD
IOPIN 720 464 In
FLAG -64 464 VDD
IOPIN -64 464 In
FLAG 544 544 VCM
IOPIN 544 544 In
FLAG 416 640 Vbias
FLAG 1936 80 VDD
IOPIN 1936 80 In
FLAG 1808 0 VDD
IOPIN 1808 0 In
FLAG 1680 112 VGATE_N
IOPIN 1680 112 BiDir
FLAG 1936 240 0
FLAG 1936 48 0
FLAG 2208 64 VPWM
IOPIN 2208 64 BiDir
FLAG 2768 -80 VDD
IOPIN 2768 -80 BiDir
FLAG 2640 -80 VDD
IOPIN 2640 -80 BiDir
FLAG 2640 400 0
FLAG 2768 400 0
FLAG 1936 672 VGATE_P
IOPIN 1936 672 BiDir
FLAG 2000 336 0
FLAG 2432 336 0
FLAG 2208 288 VDD
IOPIN 2208 288 In
FLAG 1952 544 VDD
IOPIN 1952 544 In
FLAG 2160 784 0
FLAG 2256 640 0
FLAG 1712 560 0
FLAG 1824 400 VDD
IOPIN 1824 400 In
FLAG 1808 784 0
FLAG 2336 832 VPWM
IOPIN 2336 832 BiDir
FLAG 2256 784 VDD
IOPIN 2256 784 In
FLAG 2960 -32 VGATE_P
IOPIN 2960 -32 BiDir
FLAG 2960 352 VGATE_N
IOPIN 2960 352 BiDir
FLAG 3376 448 0
FLAG 3376 -208 VDD
IOPIN 3376 -208 In
FLAG 3392 32 VSW
IOPIN 3392 32 Out
FLAG 3808 112 VOUT
IOPIN 3808 112 Out
FLAG 3664 384 0
FLAG 1808 208 0
FLAG 160 592 0
FLAG 160 512 VCTRL
IOPIN 160 512 Out
FLAG 3760 384 0
SYMBOL Res 592 160 R90
WINDOW 0 0 56 VBottom 2
WINDOW 3 32 56 VTop 2
SYMATTR InstName R2
SYMATTR Value 20k
SYMBOL Res 720 -80 R90
WINDOW 0 0 56 VBottom 2
WINDOW 3 32 56 VTop 2
SYMATTR InstName R3
SYMATTR Value 100k
SYMBOL Res 176 144 R90
WINDOW 0 0 56 VBottom 2
WINDOW 3 32 56 VTop 2
SYMATTR InstName R1
SYMATTR Value 93.5k
SYMBOL Cap 368 -32 R90
WINDOW 0 0 32 VBottom 2
WINDOW 3 32 32 VTop 2
SYMATTR InstName C1
SYMATTR Value 0.1n
SYMBOL Cap 512 368 R90
WINDOW 0 0 50 VBottom 2
WINDOW 3 32 32 VTop 2
SYMATTR InstName Cbias
SYMATTR Value 47µ
SYMBOL Res -16 272 R0
SYMATTR InstName R4
SYMATTR Value 1k
SYMBOL Res 528 432 R0
WINDOW 0 -55 38 Left 2
WINDOW 3 -74 73 Left 2
SYMATTR InstName Rbias
SYMATTR Value 1000k
SYMBOL Voltage 0 496 R0
SYMATTR InstName V1
SYMATTR Value 5
SYMBOL MCP6001 368 176 M180
SYMATTR InstName U5
SYMBOL LM339 688 192 M180
SYMATTR InstName U3
SYMBOL LM339 688 400 M180
SYMATTR InstName U4
SYMBOL Res 800 240 R90
WINDOW 0 0 56 VBottom 2
WINDOW 3 32 56 VTop 2
SYMATTR InstName R6
SYMATTR Value 5k
SYMBOL Res 848 432 R90
WINDOW 0 0 56 VBottom 2
WINDOW 3 32 56 VTop 2
SYMATTR InstName R7
SYMATTR Value 5k
SYMBOL Res -16 400 R0
SYMATTR InstName R5
SYMATTR Value 1k
SYMBOL Cap 1920 128 R0
SYMATTR InstName CP
SYMATTR Value 1n
SYMBOL PowerProducts/LTC1693-1 2704 144 R0
SYMATTR InstName U9
SYMBOL Cap 1984 368 R0
SYMATTR InstName CN
SYMATTR Value 1n
SYMBOL nmos 3296 272 R0
SYMATTR InstName M1
SYMATTR Value NTMFS5C646NL
SYMBOL pmos 3296 -32 M180
SYMATTR InstName M2
SYMATTR Value Si4427DY
SYMBOL ind 3488 128 R270
WINDOW 0 32 56 VTop 2
WINDOW 3 5 56 VBottom 2
SYMATTR InstName L
SYMATTR Value 100µ
SYMBOL Cap 3648 176 R0
SYMATTR InstName C
SYMATTR Value 47µ
SYMBOL SN74AHC00 2096 80 R180
SYMATTR InstName U1
SYMBOL SN74AHC00 2096 544 M0
SYMATTR InstName U2
SYMBOL CD4069UB 2272 704 R180
SYMATTR InstName U12
SYMBOL CD4069UB 1824 672 M0
SYMATTR InstName U11
SYMBOL CD4069UB 1808 512 R0
SYMATTR InstName U10
SYMBOL CD4069UB 1792 112 R0
SYMATTR InstName U7
SYMBOL CD4069UB 2416 192 R0
SYMATTR InstName U6
SYMBOL Voltage 160 496 R0
SYMATTR InstName V2
SYMATTR Value 2.5
SYMBOL Res 3744 160 R0
SYMATTR InstName R8
SYMATTR Value 37.5
TEXT 224 48 Left 2 ;RAMP GENERATOR
TEXT 824 368 Left 2 ;PWM MODULATOR
TEXT -16 32 Left 2 ;S Sriniketh Desikan\nEP23B051
TEXT 432 728 Left 2 ;Experiment 1
TEXT 2576 600 Left 2 !.tran 5m
TEXT 1544 -456 Left 2 ;S Sriniketh Desikan\nEP23B051
TEXT 3784 -440 Left 2 ;Experiment 2
TEXT 2336 -432 Left 5 ;Power stage and Low pass filter
RECTANGLE Normal -160 -176 1176 756 2
RECTANGLE Normal 1436 -524 4024 1120 2
